Version 4
SHEET 1 880 680
WIRE 512 -224 48 -224
WIRE 48 -112 48 -224
WIRE -256 -48 -576 -48
WIRE 0 -32 -192 -32
WIRE 512 -32 512 -224
WIRE -256 -16 -320 -16
WIRE -768 16 -768 -48
WIRE -576 16 -576 -48
WIRE 48 16 48 -16
WIRE 48 16 -64 16
WIRE 48 48 48 16
WIRE -320 64 -320 -16
WIRE -64 64 -64 16
WIRE -64 64 -320 64
WIRE -768 176 -768 96
WIRE -576 176 -576 96
WIRE -576 176 -768 176
WIRE -224 176 -576 176
WIRE 48 176 48 128
WIRE 48 176 -224 176
WIRE 512 176 512 48
WIRE 512 176 48 176
WIRE -224 224 -224 176
FLAG -768 -48 2.7V
FLAG -240 0 2.7V
FLAG -224 224 0
FLAG -240 -64 0
SYMBOL voltage -576 0 R0
WINDOW 123 0 0 Left 2
WINDOW 39 0 0 Left 2
SYMATTR InstName V1
SYMATTR Value PULSE(0 .1 .5 .1 .1 .3 1 2)
SYMBOL res 32 32 R0
SYMATTR InstName R1
SYMATTR Value .1
SYMBOL nmos 0 -112 R0
SYMATTR InstName M1
SYMATTR Value BSC010NE2LSI
SYMBOL voltage 512 -48 R0
WINDOW 123 0 0 Left 2
WINDOW 39 0 0 Left 2
SYMATTR InstName V2
SYMATTR Value 3.7
SYMBOL voltage -768 0 R0
WINDOW 123 0 0 Left 2
WINDOW 39 0 0 Left 2
SYMATTR InstName V3
SYMATTR Value 2.7V
SYMBOL Opamps\\LT1218 -224 -32 M180
SYMATTR InstName U1
TEXT -802 248 Left 2 !.tran 0 2 0
